./Fase1.sh: line 59: /home/omiralles03/Desktop/URV/EC/Practica3_EstructuraComputadors/Fase1_HitMiss/../simplesim-3.0_ecx/sim-outorder: No such file or directory
